Version 4
SHEET 1 1156 680
WIRE -2000 -448 -2272 -448
WIRE -1856 -448 -1936 -448
WIRE -2432 -320 -2512 -320
WIRE -2336 -320 -2432 -320
WIRE -2272 -320 -2272 -448
WIRE -2272 -320 -2336 -320
WIRE -2224 -320 -2272 -320
WIRE -1968 -320 -2144 -320
WIRE -1728 -320 -1968 -320
WIRE -1968 -272 -1968 -320
WIRE -1728 -272 -1728 -320
WIRE -1968 -160 -1968 -192
WIRE -2816 -112 -2816 -128
WIRE -2688 -112 -2816 -112
WIRE -2512 -112 -2512 -320
WIRE -2432 -112 -2432 -320
WIRE -2336 -96 -2336 -320
WIRE -2816 -80 -2816 -112
WIRE -2688 -80 -2688 -112
WIRE -2272 -80 -2272 -320
WIRE -2176 -80 -2272 -80
WIRE -1856 -48 -1856 -448
WIRE -1856 -48 -2032 -48
WIRE -1728 -48 -1728 -192
WIRE -1728 -48 -1856 -48
WIRE -2176 -16 -2256 -16
WIRE -2512 16 -2512 -32
WIRE -2432 16 -2432 -32
WIRE -2432 16 -2512 16
WIRE -2336 16 -2336 -32
WIRE -2336 16 -2432 16
WIRE -2512 48 -2512 16
WIRE -2256 48 -2256 -16
FLAG -2512 48 0
FLAG -2256 48 0
FLAG -2688 -80 0
FLAG -2816 -208 V+
FLAG -2816 0 V-
FLAG -2144 32 V-
FLAG -1728 -48 OUT
FLAG -1968 -160 0
FLAG -2144 -128 V+
SYMBOL current -2512 -112 R0
WINDOW 123 24 28 Left 2
WINDOW 39 0 0 Left 2
SYMATTR Value2 AC 100fA
SYMATTR InstName I1
SYMATTR Value 0
SYMBOL res -2448 -128 R0
SYMATTR InstName R1
SYMATTR Value 5G
SYMBOL cap -2352 -96 R0
SYMATTR InstName C1
SYMATTR Value 72p
SYMBOL res -2128 -336 R90
WINDOW 0 0 56 VBottom 2
WINDOW 3 32 56 VTop 2
SYMATTR InstName R2
SYMATTR Value 100Meg
SYMBOL voltage -2816 -224 R0
WINDOW 123 0 0 Left 2
WINDOW 39 0 0 Left 2
SYMATTR InstName V1
SYMATTR Value 3.3
SYMBOL voltage -2816 -96 R0
WINDOW 123 0 0 Left 2
WINDOW 39 0 0 Left 2
SYMATTR InstName V2
SYMATTR Value 3.3
SYMBOL res -1712 -176 R180
WINDOW 0 36 76 Left 2
WINDOW 3 36 40 Left 2
SYMATTR InstName R3
SYMATTR Value 100k
SYMBOL res -1952 -176 R180
WINDOW 0 36 76 Left 2
WINDOW 3 36 40 Left 2
SYMATTR InstName R4
SYMATTR Value 1k
SYMBOL Opamps\\LTC6269 -2144 -48 R0
SYMATTR InstName U1
SYMBOL cap -1936 -464 R90
WINDOW 0 0 32 VBottom 2
WINDOW 3 32 32 VTop 2
SYMATTR InstName C2
SYMATTR Value 26f
TEXT -2848 72 Left 2 !.ac dec 100 1Hz 1000kHz
TEXT -2848 112 Left 2 !.include ada4530.cir
