Version 4
SHEET 1 880 680
WIRE 240 64 16 64
WIRE 16 144 16 64
WIRE 112 144 16 144
WIRE 240 160 240 64
WIRE 240 160 176 160
WIRE 304 160 240 160
WIRE 416 160 384 160
WIRE 560 160 480 160
WIRE 112 176 16 176
WIRE 16 272 16 256
WIRE 144 272 144 192
FLAG 144 272 0
FLAG 16 272 0
FLAG 96 -48 V+
FLAG 96 32 0
FLAG 144 128 V+
FLAG 560 160 V+
SYMBOL Opamps\\opamp2 144 96 R0
SYMATTR InstName U1
SYMATTR Value LM358
SYMBOL voltage 16 160 R0
WINDOW 3 -7 176 Left 2
WINDOW 123 0 0 Left 2
WINDOW 39 0 0 Left 2
SYMATTR Value PULSE(3.3V 0V 0 100ns 100ns 50us 100us 8)
SYMATTR InstName V1
SYMBOL res 400 144 R90
WINDOW 0 0 56 VBottom 2
WINDOW 3 32 56 VTop 2
SYMATTR InstName R1
SYMATTR Value 1k
SYMBOL LED 480 144 R90
WINDOW 0 0 32 VBottom 2
WINDOW 3 72 32 VTop 2
SYMATTR InstName D1
SYMATTR Value LXHL-BW02
SYMBOL voltage 96 -64 R0
WINDOW 3 -77 18 Left 2
WINDOW 123 0 0 Left 2
WINDOW 39 0 0 Left 2
SYMATTR Value 5V
SYMATTR InstName V2
TEXT 0 416 Left 2 !.include lm358.txt
TEXT 0 376 Left 2 !.tran 10ms
