Version 4
SHEET 1 1320 680
WIRE 320 -96 320 -128
WIRE 592 -96 592 -128
WIRE 272 -80 208 -80
WIRE 704 -80 640 -80
WIRE 16 -32 16 -48
WIRE 16 80 16 48
WIRE 208 80 208 -80
WIRE 208 80 144 80
WIRE 320 80 320 0
WIRE 416 80 320 80
WIRE 592 80 592 0
WIRE 592 80 496 80
WIRE 704 80 704 -80
WIRE 768 80 704 80
WIRE 144 128 144 80
WIRE 768 128 768 80
WIRE 320 176 320 80
WIRE 592 176 592 80
WIRE 208 256 208 80
WIRE 272 256 208 256
WIRE 704 256 704 80
WIRE 704 256 640 256
WIRE 144 352 144 208
WIRE 320 352 320 272
WIRE 592 352 592 272
WIRE 768 352 768 208
FLAG 144 352 0
FLAG 16 80 0
FLAG 16 -48 V+
FLAG 320 -128 V+
FLAG 320 352 0
FLAG 592 -128 V+
FLAG 592 352 0
FLAG 768 352 0
SYMBOL voltage 144 112 R0
WINDOW 3 -169 323 Left 2
WINDOW 123 0 0 Left 2
WINDOW 39 0 0 Left 2
SYMATTR Value PULSE(0V 3.3V 0 1us 1us 5s 10s)
SYMATTR InstName V1
SYMBOL voltage 16 -48 R0
WINDOW 123 0 0 Left 2
WINDOW 39 0 0 Left 2
SYMATTR InstName V2
SYMATTR Value 5V
SYMBOL nmos 272 176 R0
SYMATTR InstName M1
SYMATTR Value AO6408
SYMBOL pmos 272 0 M180
SYMATTR InstName M2
SYMATTR Value AO6407
SYMBOL nmos 640 176 M0
SYMATTR InstName M3
SYMATTR Value AO6408
SYMBOL pmos 640 0 R180
SYMATTR InstName M4
SYMATTR Value AO6407
SYMBOL res 512 64 R90
WINDOW 0 0 56 VBottom 2
WINDOW 3 32 56 VTop 2
SYMATTR InstName R1
SYMATTR Value 100
SYMBOL voltage 768 112 M0
WINDOW 3 -121 332 Left 2
WINDOW 123 0 0 Left 2
WINDOW 39 0 0 Left 2
SYMATTR Value PULSE(3.3V 0V 0 1us 1us 5s 10s)
SYMATTR InstName V3
TEXT -32 480 Left 2 !.tran 100s
